Circuit: ***gnrfet D FLIP FLOP USING STI***************************************************

Fatal Error: Missing expression in "equisbbd(sbbda, sbbdb) = {sbbda*(to8(1-p))+sbbdb*(1-to8(1-p))}"
